tests/data/power_flow/pandapower/components/symmetric/node/sym_output.json
{
  "version": "1.0",
  "type": "sym_output",
  "is_batch": false,
  "attributes": {},
  "data": {
    "line": [
      {
        "id": 3,
        "loading": 0.0019045258118158875,
        "p_from": 0.6801248285515468,
        "q_from": -34636.8418070612,
        "i_from": 1.9045258118158874,
        "s_from": 34636.84181373863,
        "p_to": 5.684765251207531e-08,
        "q_to": 5.684314855346098e-08,
        "i_to": 4.420234014104035e-12,
        "s_to": 8.039153645505536e-08
      }
    ],
    "node": [
      {
        "id": 1,
        "u_pu": 1.00000344647587,
        "u": 10500.036187996635,
        "u_angle": -3.44715944424613e-07
      },
      {
        "id": 2,
        "u_pu": 1.000034862726537,
        "u": 10500.366058628637,
        "u_angle": -3.9615857833403066e-05
      },
      {
        "id": 5,
        "u_pu": 0.0,
        "u": 0.0,
        "u_angle": 0.0
      }
    ],
    "source": [
      {
        "id": 10,
        "p": 0.6801249990824695,
        "q": -34636.84180683383,
        "i": 1.9045258118033845,
        "s": 34636.84181351125
      }
    ]
  }
}
